
* C:\Users\DELL\Desktop\LTSPICENETLIST\Draft7.asc
M1 out_to_pad N001 0 0 NMOS
M2 N001 from_int_ckt 0 0 NMOS
M3 vdd vdd N001 N001 NMOS
M4 vdd from_int_ckt out_to_pad out_to_pad NMOS
V1 from_int_ckt 0 PULSE(0 1 0 1 0 0 1)
.model NMOS NMOS
.model PMOS PMOS
.lib C:\Users\DELL\Documents\LTspiceXVII\lib\cmp\standard.mos
vdd vdd 0 DC 3.8
.dc V1 0 3.8 1m
.backanno
.end
