* C:\Users\DELL\Desktop\LTSPICENETLIST\gpio input buffer.asc
M1 from_pad from_pad vdd N001 PMOS
M2 vdd from_pad N004 N002 PMOS
M3 vdd N004 to_core N003 PMOS
M5 N004 from_pad 0 N006 NMOS
M6 to_core N004 0 N007 NMOS
M4 0 from_pad from_pad N005 NMOS
V1 from_pad 0 PULSE(0 1 0 1 0 0 1)
.model NMOS NMOS
.model PMOS PMOS
.lib C:\Users\DELL\Documents\LTspiceXVII\lib\cmp\standard.mos
Vdd Vdd 0 DC 3.8
.dc V1 0 3.9 1
.backanno
.end
